Circuit: * U:\Windows\Bureau\5A\capteurs\Draft1.asc

Direct Newton iteration for .op point succeeded.

Date: Fri Dec  8 09:57:23 2023
Total elapsed time: 0.088 seconds.

tnom = 27
temp = 27
method = trap
totiter = 22
traniter = 0
tranpoints = 0
accept = 0
rejected = 0
matrix size = 14
fillins = 5
solver = Normal
Avg thread counts: 6.0/0.0/6.0/4.6
Matrix Compiler1:      38 opcodes
Matrix Compiler2: 1.18 KB object code size
